@<TRIPOS>MOLECULE
MOL
   30    32     1     0     0
SMALL
resp


@<TRIPOS>ATOM
      1 C1         -0.0640    4.0480   -3.8520 ca        1 MOL     -0.094072
      2 C2          0.8360    5.0830   -3.6860 ca        1 MOL     -0.021790
      3 C3          0.5170    6.1420   -2.8520 ca        1 MOL     -0.063538
      4 C4         -0.7030    6.1490   -2.1910 ca        1 MOL      0.447312
      5 C5         -1.6010    5.1070   -2.3620 ca        1 MOL     -0.434609
      6 C6         -1.2800    4.0520   -3.1930 ca        1 MOL      0.021224
      7 H1          1.7750    5.0480   -4.1980 ha        1 MOL      0.141502
      8 C7          1.4430    7.3080   -2.5220 c3        1 MOL     -0.024769
      9 H2         -2.5470    5.1220   -1.8520 ha        1 MOL      0.218759
     10 H3         -1.9710    3.2430   -3.3310 ha        1 MOL      0.145079
     11 C8         -0.3860    8.4350   -1.4310 c         1 MOL      0.929155
     12 H4         -1.8380    7.2140   -0.8190 hn        1 MOL      0.377858
     13 Cl1         0.3430    2.7190   -4.9010 cl        1 MOL     -0.097966
     14 N1         -0.9910    7.2160   -1.3430 n         1 MOL     -0.687253
     15 O1          0.6840    8.4680   -2.2320 os        1 MOL     -0.343121
     16 O2         -0.7770    9.4040   -0.8780 o         1 MOL     -0.604308
     17 C9          2.2970    7.7740   -3.7150 c3        1 MOL      0.522671
     18 C10         2.3190    6.9690   -1.3850 c1        1 MOL     -0.050662
     19 C11         3.0100    6.6890   -0.4610 c1        1 MOL     -0.069031
     20 C12         3.8600    6.3540    0.6620 cx        1 MOL     -0.037345
     21 C13         3.3390    5.4490    1.7490 cx        1 MOL     -0.283954
     22 C14         4.3800    4.9470    0.8110 cx        1 MOL     -0.283954
     23 H5          4.5170    7.1480    0.9670 hc        1 MOL      0.153234
     24 H6          2.3370    5.0760    1.6430 hc        1 MOL      0.152255
     25 H7          3.6250    5.6860    2.7580 hc        1 MOL      0.152255
     26 H8          5.3870    4.8360    1.1700 hc        1 MOL      0.152255
     27 H9          4.0890    4.2310    0.0640 hc        1 MOL      0.152255
     28 F1          1.5410    8.0290   -4.7610 f         1 MOL     -0.156481
     29 F2          3.1710    6.8440   -4.0610 f         1 MOL     -0.156481
     30 F3          2.9680    8.8600   -3.4150 f         1 MOL     -0.156481
@<TRIPOS>BOND
     1    1    2 ar  
     2    1    6 ar  
     3    1   13 1   
     4    2    3 ar  
     5    2    7 1   
     6    3    4 ar  
     7    3    8 1   
     8    4    5 ar  
     9    4   14 1   
    10    5    6 ar  
    11    5    9 1   
    12    6   10 1   
    13    8   15 1   
    14    8   17 1   
    15    8   18 1   
    16   11   14 1   
    17   11   15 1   
    18   11   16 2   
    19   12   14 1   
    20   17   28 1   
    21   17   29 1   
    22   17   30 1   
    23   18   19 3   
    24   19   20 1   
    25   20   21 1   
    26   20   22 1   
    27   20   23 1   
    28   21   22 1   
    29   21   24 1   
    30   21   25 1   
    31   22   26 1   
    32   22   27 1   
@<TRIPOS>SUBSTRUCTURE
     1 MOL         1 TEMP              0 ****  ****    0 ROOT
